* File: total.pex.spi.pex
* Created: Thu Dec 28 19:20:33 2023
* Program "Calibre xRC"
* Version "v2016.4_15.11"
* Nominal Temperature: 27C
* Circuit Temperature: 27C
* 
.subckt PM_TOTAL_XI2.XI5.NET16 10 11 16 17 24 31 35 40 44 49 53 58 62
c0 82 0 0.148181f
c1 79 0 0.108454f
c2 76 0 0.182051f
c3 72 0 0.187066f
c4 68 0 0.0798332f
c5 65 0 0.0088531f
c6 64 0 0.0088531f
c7 63 0 0.0165044f
c8 60 0 0.19146f
c9 58 0 0.0812436f
c10 54 0 0.0638298f
c11 51 0 0.0843295f
c12 49 0 0.108063f
c13 45 0 0.0628087f
c14 42 0 0.0843295f
c15 40 0 0.107901f
c16 36 0 0.0604887f
c17 33 0 0.129389f
c18 31 0 0.144871f
c19 26 0 0.0020055f
c20 19 0 0.0105299f
c21 10 0 0.00358843f
c22 4 0 0.595145f
c23 2 0 0.521791f
r24 78 79 8
r25 75 76 8
r26 71 75 0.1794
r27 71 72 8
r28 68 82 8
r29 67 69 3.75
r30 67 68 13.2552
r31 60 69 5.87991
r32 60 62 37
r33 56 67 8.24404
r34 56 58 31.75
r35 55 65 4.5
r36 54 69 5.47362
r37 54 55 25.5
r38 51 65 4.5
r39 51 53 37
r40 47 65 4.5
r41 47 49 50.5
r42 46 64 4.5
r43 45 65 4.5
r44 45 46 25.5
r45 42 64 4.5
r46 42 44 37
r47 38 64 4.5
r48 38 40 50.5
r49 37 63 0.990414
r50 36 64 4.5
r51 36 37 25.5
r52 33 63 3.81101
r53 33 35 37
r54 29 63 3.81101
r55 29 31 50.5
r56 26 79 16.3327
r57 24 26 5.85957
r58 19 76 8.16635
r59 17 19 2.75117
r60 16 19 2.75117
r61 13 72 8.16635
r62 11 13 2.304
r63 10 13 2.286
r64 5 82 0.12155
r65 4 75 0.40937
r66 4 5 0.0363174
r67 3 82 0.11635
r68 2 78 0.41977
r69 2 3 0.0363174
.ends

.subckt PM_TOTAL_XI2.XI5.NET27 1 2
c0 1 0 0.00438072f
r1 1 2 8.52128
.ends

.subckt PM_TOTAL_XI2.XI5.NET28 1 2
c0 1 0 0.00437088f
r1 1 2 8.52128
.ends

.subckt PM_TOTAL_XI2.XI1.NET16 10 11 16 17 24 31 35 40 44 49 53 58 62
c0 82 0 0.174935f
c1 79 0 0.109391f
c2 76 0 0.181881f
c3 72 0 0.186031f
c4 68 0 0.108222f
c5 65 0 0.0088531f
c6 64 0 0.0088531f
c7 63 0 0.0165044f
c8 60 0 0.198106f
c9 58 0 0.0824354f
c10 54 0 0.0642633f
c11 51 0 0.0843295f
c12 49 0 0.108233f
c13 45 0 0.0628087f
c14 42 0 0.0843295f
c15 40 0 0.108072f
c16 36 0 0.0620315f
c17 33 0 0.129389f
c18 31 0 0.146392f
c19 26 0 8.45704e-19
c20 19 0 0.0189338f
c21 10 0 0.00156444f
c22 4 0 0.59274f
c23 2 0 0.528725f
r24 78 79 8
r25 75 76 8
r26 71 75 0.1794
r27 71 72 8
r28 68 82 8
r29 67 69 3.75
r30 67 68 13.2552
r31 60 69 5.87991
r32 60 62 37
r33 56 67 8.24404
r34 56 58 31.75
r35 55 65 4.5
r36 54 69 5.47362
r37 54 55 25.5
r38 51 65 4.5
r39 51 53 37
r40 47 65 4.5
r41 47 49 50.5
r42 46 64 4.5
r43 45 65 4.5
r44 45 46 25.5
r45 42 64 4.5
r46 42 44 37
r47 38 64 4.5
r48 38 40 50.5
r49 37 63 0.990414
r50 36 64 4.5
r51 36 37 25.5
r52 33 63 3.81101
r53 33 35 37
r54 29 63 3.81101
r55 29 31 50.5
r56 26 79 16.3327
r57 24 26 5.85957
r58 19 76 8.16635
r59 17 19 2.75117
r60 16 19 2.75117
r61 13 72 8.16635
r62 11 13 2.304
r63 10 13 2.286
r64 5 82 0.12155
r65 4 75 0.40937
r66 4 5 0.0363174
r67 3 82 0.11635
r68 2 78 0.41977
r69 2 3 0.0363174
.ends

.subckt PM_TOTAL_XI2.XI1.NET27 1 2
c0 1 0 0.00492462f
r1 1 2 8.52128
.ends

.subckt PM_TOTAL_XI2.XI1.NET28 1 2
c0 1 0 0.0112071f
r1 1 2 8.52128
.ends

.subckt PM_TOTAL_XI2.XI7.NET16 10 11 16 17 24 31 35 40 44 49 53 58 62
c0 82 0 0.108978f
c1 79 0 0.107407f
c2 76 0 0.178589f
c3 72 0 0.18546f
c4 68 0 0.108012f
c5 65 0 0.0088531f
c6 64 0 0.0088531f
c7 63 0 0.0165044f
c8 60 0 0.196098f
c9 58 0 0.0819739f
c10 54 0 0.0636508f
c11 51 0 0.0843295f
c12 49 0 0.108063f
c13 45 0 0.0628087f
c14 42 0 0.0843295f
c15 40 0 0.107901f
c16 36 0 0.0604887f
c17 33 0 0.129389f
c18 31 0 0.144871f
c19 26 0 0.0020055f
c20 19 0 0.0247469f
c21 10 0 0.00156444f
c22 4 0 0.547646f
c23 2 0 0.488029f
r24 78 79 8
r25 75 76 8
r26 71 75 0.1794
r27 71 72 8
r28 68 82 8
r29 67 69 3.75
r30 67 68 13.2552
r31 60 69 5.87991
r32 60 62 37
r33 56 67 8.24404
r34 56 58 31.75
r35 55 65 4.5
r36 54 69 5.47362
r37 54 55 25.5
r38 51 65 4.5
r39 51 53 37
r40 47 65 4.5
r41 47 49 50.5
r42 46 64 4.5
r43 45 65 4.5
r44 45 46 25.5
r45 42 64 4.5
r46 42 44 37
r47 38 64 4.5
r48 38 40 50.5
r49 37 63 0.990414
r50 36 64 4.5
r51 36 37 25.5
r52 33 63 3.81101
r53 33 35 37
r54 29 63 3.81101
r55 29 31 50.5
r56 26 79 16.3327
r57 24 26 5.85957
r58 19 76 8.16635
r59 17 19 2.75117
r60 16 19 2.75117
r61 13 72 8.16635
r62 11 13 2.304
r63 10 13 2.286
r64 5 82 0.12155
r65 4 75 0.40937
r66 4 5 0.0363174
r67 3 82 0.11635
r68 2 78 0.41977
r69 2 3 0.0363174
.ends

.subckt PM_TOTAL_XI2.XI7.NET27 1 2
c0 1 0 0.00438072f
r1 1 2 8.52128
.ends

.subckt PM_TOTAL_XI2.XI7.NET28 1 2
c0 1 0 0.00437088f
r1 1 2 8.52128
.ends

.subckt PM_TOTAL_XI2.XI3.NET16 10 11 16 17 24 31 35 40 44 49 53 58 62
c0 82 0 0.108978f
c1 79 0 0.107382f
c2 76 0 0.17937f
c3 72 0 0.185267f
c4 68 0 0.108012f
c5 65 0 0.0088531f
c6 64 0 0.0088531f
c7 63 0 0.0165044f
c8 60 0 0.196098f
c9 58 0 0.0819739f
c10 54 0 0.0636508f
c11 51 0 0.0843295f
c12 49 0 0.108063f
c13 45 0 0.0628087f
c14 42 0 0.0843295f
c15 40 0 0.107901f
c16 36 0 0.0604887f
c17 33 0 0.129389f
c18 31 0 0.144871f
c19 26 0 0.00102761f
c20 19 0 0.0247469f
c21 10 0 0.00156444f
c22 4 0 0.547357f
c23 2 0 0.491955f
r24 78 79 8
r25 75 76 8
r26 71 75 0.1794
r27 71 72 8
r28 68 82 8
r29 67 69 3.75
r30 67 68 13.2552
r31 60 69 5.87991
r32 60 62 37
r33 56 67 8.24404
r34 56 58 31.75
r35 55 65 4.5
r36 54 69 5.47362
r37 54 55 25.5
r38 51 65 4.5
r39 51 53 37
r40 47 65 4.5
r41 47 49 50.5
r42 46 64 4.5
r43 45 65 4.5
r44 45 46 25.5
r45 42 64 4.5
r46 42 44 37
r47 38 64 4.5
r48 38 40 50.5
r49 37 63 0.990414
r50 36 64 4.5
r51 36 37 25.5
r52 33 63 3.81101
r53 33 35 37
r54 29 63 3.81101
r55 29 31 50.5
r56 26 79 16.3327
r57 24 26 5.85957
r58 19 76 8.16635
r59 17 19 2.75117
r60 16 19 2.75117
r61 13 72 8.16635
r62 11 13 2.304
r63 10 13 2.286
r64 5 82 0.12155
r65 4 75 0.40937
r66 4 5 0.0363174
r67 3 82 0.11635
r68 2 78 0.41977
r69 2 3 0.0363174
.ends

.subckt PM_TOTAL_XI2.XI3.NET27 1 2
c0 1 0 0.00865518f
r1 1 2 8.52128
.ends

.subckt PM_TOTAL_XI2.XI3.NET28 1 2
c0 1 0 0.00997466f
r1 1 2 8.52128
.ends

.subckt PM_TOTAL_XI2.XI4.NET16 10 11 16 17 24 31 35 40 44 49 53 58 62
c0 82 0 0.180775f
c1 79 0 0.107393f
c2 76 0 0.180903f
c3 72 0 0.186708f
c4 68 0 0.108222f
c5 65 0 0.0088531f
c6 64 0 0.0088531f
c7 63 0 0.0182701f
c8 60 0 0.19961f
c9 58 0 0.0825844f
c10 54 0 0.0633027f
c11 51 0 0.086743f
c12 49 0 0.10826f
c13 45 0 0.0628087f
c14 42 0 0.086743f
c15 40 0 0.108098f
c16 36 0 0.0639006f
c17 33 0 0.131551f
c18 31 0 0.146342f
c19 26 0 0.00102761f
c20 19 0 0.0216871f
c21 10 0 0.00228514f
c22 4 0 0.600485f
c23 2 0 0.532359f
r24 78 79 8
r25 75 76 8
r26 71 75 0.1794
r27 71 72 8
r28 68 82 8
r29 67 69 3.75
r30 67 68 13.2552
r31 60 69 5.87991
r32 60 62 37
r33 56 67 8.24404
r34 56 58 31.75
r35 55 65 4.5
r36 54 69 5.47362
r37 54 55 25.5
r38 51 65 4.5
r39 51 53 37
r40 47 65 4.5
r41 47 49 50.5
r42 46 64 4.5
r43 45 65 4.5
r44 45 46 25.5
r45 42 64 4.5
r46 42 44 37
r47 38 64 4.5
r48 38 40 50.5
r49 37 63 0.990414
r50 36 64 4.5
r51 36 37 25.5
r52 33 63 3.81101
r53 33 35 37
r54 29 63 3.81101
r55 29 31 50.5
r56 26 79 16.3327
r57 24 26 5.85957
r58 19 76 8.16635
r59 17 19 2.75117
r60 16 19 2.75117
r61 13 72 8.16635
r62 11 13 2.304
r63 10 13 2.286
r64 5 82 0.12155
r65 4 75 0.40937
r66 4 5 0.0363174
r67 3 82 0.11635
r68 2 78 0.41977
r69 2 3 0.0363174
.ends

.subckt PM_TOTAL_XI2.XI4.NET27 1 2
c0 1 0 0.00865518f
r1 1 2 8.52128
.ends

.subckt PM_TOTAL_XI2.XI4.NET28 1 2
c0 1 0 0.00997466f
r1 1 2 8.52128
.ends

.subckt PM_TOTAL_XI2.XI0.NET16 10 11 16 17 24 31 35 40 44 49 53 58 62
c0 82 0 0.151516f
c1 79 0 0.108561f
c2 76 0 0.182172f
c3 72 0 0.184897f
c4 68 0 0.0796072f
c5 65 0 0.0103761f
c6 64 0 0.0103761f
c7 63 0 0.0179835f
c8 60 0 0.197028f
c9 58 0 0.0808569f
c10 54 0 0.0636899f
c11 51 0 0.0891745f
c12 49 0 0.108628f
c13 45 0 0.0625726f
c14 42 0 0.0891745f
c15 40 0 0.108467f
c16 36 0 0.0625353f
c17 33 0 0.133641f
c18 31 0 0.145503f
c19 26 0 0.00206892f
c20 19 0 0.0115741f
c21 10 0 0.00158286f
c22 4 0 0.585421f
c23 2 0 0.393871f
r24 78 79 8
r25 75 76 8
r26 71 75 0.1794
r27 71 72 8
r28 68 82 8
r29 67 69 3.75
r30 67 68 13.2552
r31 60 69 5.87991
r32 60 62 37
r33 56 67 8.24404
r34 56 58 31.75
r35 55 65 4.5
r36 54 69 5.47362
r37 54 55 25.5
r38 51 65 4.5
r39 51 53 37
r40 47 65 4.5
r41 47 49 50.5
r42 46 64 4.5
r43 45 65 4.5
r44 45 46 25.5
r45 42 64 4.5
r46 42 44 37
r47 38 64 4.5
r48 38 40 50.5
r49 37 63 0.990414
r50 36 64 4.5
r51 36 37 25.5
r52 33 63 3.81101
r53 33 35 37
r54 29 63 3.81101
r55 29 31 50.5
r56 26 79 16.3327
r57 24 26 5.85957
r58 19 76 8.16635
r59 17 19 2.75117
r60 16 19 2.75117
r61 13 72 8.16635
r62 11 13 2.304
r63 10 13 2.286
r64 5 82 0.12155
r65 4 75 0.40937
r66 4 5 0.0363174
r67 3 82 0.11635
r68 2 78 0.41977
r69 2 3 0.0363174
.ends

.subckt PM_TOTAL_XI2.XI0.NET27 1 2
c0 1 0 0.0114273f
r1 1 2 8.52128
.ends

.subckt PM_TOTAL_XI2.XI0.NET28 1 2
c0 1 0 0.013514f
r1 1 2 8.52128
.ends

.subckt PM_TOTAL_XI2.XI6.NET16 10 11 16 17 24 31 35 40 44 49 53 58 62
c0 82 0 0.108978f
c1 79 0 0.107476f
c2 76 0 0.180288f
c3 72 0 0.187421f
c4 68 0 0.108012f
c5 65 0 0.0088531f
c6 64 0 0.0088531f
c7 63 0 0.0165044f
c8 60 0 0.196098f
c9 58 0 0.0819739f
c10 54 0 0.0636508f
c11 51 0 0.0843295f
c12 49 0 0.108063f
c13 45 0 0.0628087f
c14 42 0 0.0843295f
c15 40 0 0.107901f
c16 36 0 0.0604887f
c17 33 0 0.129389f
c18 31 0 0.144871f
c19 26 0 8.45704e-19
c20 19 0 0.0189338f
c21 10 0 0.00156444f
c22 4 0 0.559861f
c23 2 0 0.48718f
r24 78 79 8
r25 75 76 8
r26 71 75 0.1794
r27 71 72 8
r28 68 82 8
r29 67 69 3.75
r30 67 68 13.2552
r31 60 69 5.87991
r32 60 62 37
r33 56 67 8.24404
r34 56 58 31.75
r35 55 65 4.5
r36 54 69 5.47362
r37 54 55 25.5
r38 51 65 4.5
r39 51 53 37
r40 47 65 4.5
r41 47 49 50.5
r42 46 64 4.5
r43 45 65 4.5
r44 45 46 25.5
r45 42 64 4.5
r46 42 44 37
r47 38 64 4.5
r48 38 40 50.5
r49 37 63 0.990414
r50 36 64 4.5
r51 36 37 25.5
r52 33 63 3.81101
r53 33 35 37
r54 29 63 3.81101
r55 29 31 50.5
r56 26 79 16.3327
r57 24 26 5.85957
r58 19 76 8.16635
r59 17 19 2.75117
r60 16 19 2.75117
r61 13 72 8.16635
r62 11 13 2.304
r63 10 13 2.286
r64 5 82 0.12155
r65 4 75 0.40937
r66 4 5 0.0363174
r67 3 82 0.11635
r68 2 78 0.41977
r69 2 3 0.0363174
.ends

.subckt PM_TOTAL_XI2.XI6.NET27 1 2
c0 1 0 0.00492462f
r1 1 2 8.52128
.ends

.subckt PM_TOTAL_XI2.XI6.NET28 1 2
c0 1 0 0.0112071f
r1 1 2 8.52128
.ends

.subckt PM_TOTAL_XI2.XI2.NET16 10 11 16 17 24 31 35 40 44 49 53 58 62
c0 82 0 0.108978f
c1 79 0 0.108117f
c2 76 0 0.181558f
c3 72 0 0.184562f
c4 68 0 0.108007f
c5 65 0 0.0088531f
c6 64 0 0.0088531f
c7 63 0 0.0165044f
c8 60 0 0.196098f
c9 58 0 0.0789838f
c10 54 0 0.0636508f
c11 51 0 0.0843295f
c12 49 0 0.105072f
c13 45 0 0.0628087f
c14 42 0 0.0843295f
c15 40 0 0.104911f
c16 36 0 0.0604887f
c17 33 0 0.129389f
c18 31 0 0.14188f
c19 26 0 0.00287643f
c20 19 0 0.00987935f
c21 10 0 0.00158286f
c22 4 0 0.569588f
c23 2 0 0.334833f
r24 78 79 8
r25 75 76 8
r26 71 75 0.1794
r27 71 72 8
r28 68 82 8
r29 67 69 3.75
r30 67 68 13.2552
r31 60 69 5.87991
r32 60 62 37
r33 56 67 8.24404
r34 56 58 31.75
r35 55 65 4.5
r36 54 69 5.47362
r37 54 55 25.5
r38 51 65 4.5
r39 51 53 37
r40 47 65 4.5
r41 47 49 50.5
r42 46 64 4.5
r43 45 65 4.5
r44 45 46 25.5
r45 42 64 4.5
r46 42 44 37
r47 38 64 4.5
r48 38 40 50.5
r49 37 63 0.990414
r50 36 64 4.5
r51 36 37 25.5
r52 33 63 3.81101
r53 33 35 37
r54 29 63 3.81101
r55 29 31 50.5
r56 26 79 16.3327
r57 24 26 5.85957
r58 19 76 8.16635
r59 17 19 2.75117
r60 16 19 2.75117
r61 13 72 8.16635
r62 11 13 2.304
r63 10 13 2.286
r64 5 82 0.12155
r65 4 75 0.40937
r66 4 5 0.0363174
r67 3 82 0.11635
r68 2 78 0.41977
r69 2 3 0.0363174
.ends

.subckt PM_TOTAL_XI2.XI2.NET27 1 2
c0 1 0 0.0114273f
r1 1 2 8.52128
.ends

.subckt PM_TOTAL_XI2.XI2.NET28 1 2
c0 1 0 0.0114016f
r1 1 2 8.52128
.ends

.subckt PM_TOTAL_XI1.XI5.NET16 10 11 16 17 24 31 35 40 44 49 53 58 62
c0 82 0 0.100968f
c1 79 0 0.108117f
c2 76 0 0.182051f
c3 72 0 0.187066f
c4 68 0 0.0709455f
c5 65 0 0.0088531f
c6 64 0 0.0088531f
c7 63 0 0.0165044f
c8 60 0 0.191687f
c9 58 0 0.0779116f
c10 54 0 0.0624065f
c11 51 0 0.0843295f
c12 49 0 0.105072f
c13 45 0 0.0628087f
c14 42 0 0.0843295f
c15 40 0 0.104911f
c16 36 0 0.0604887f
c17 33 0 0.129389f
c18 31 0 0.14188f
c19 26 0 0.00287643f
c20 19 0 0.0105299f
c21 10 0 0.00358843f
c22 4 0 0.577007f
c23 2 0 0.339987f
r24 78 79 8
r25 75 76 8
r26 71 75 0.1794
r27 71 72 8
r28 68 82 8
r29 67 69 3.75
r30 67 68 13.2552
r31 60 69 5.87991
r32 60 62 37
r33 56 67 8.24404
r34 56 58 31.75
r35 55 65 4.5
r36 54 69 5.47362
r37 54 55 25.5
r38 51 65 4.5
r39 51 53 37
r40 47 65 4.5
r41 47 49 50.5
r42 46 64 4.5
r43 45 65 4.5
r44 45 46 25.5
r45 42 64 4.5
r46 42 44 37
r47 38 64 4.5
r48 38 40 50.5
r49 37 63 0.990414
r50 36 64 4.5
r51 36 37 25.5
r52 33 63 3.81101
r53 33 35 37
r54 29 63 3.81101
r55 29 31 50.5
r56 26 79 16.3327
r57 24 26 5.85957
r58 19 76 8.16635
r59 17 19 2.75117
r60 16 19 2.75117
r61 13 72 8.16635
r62 11 13 2.304
r63 10 13 2.286
r64 5 82 0.12155
r65 4 75 0.40937
r66 4 5 0.0363174
r67 3 82 0.11635
r68 2 78 0.41977
r69 2 3 0.0363174
.ends

.subckt PM_TOTAL_XI1.XI5.NET27 1 2
c0 1 0 0.0114273f
r1 1 2 8.52128
.ends

.subckt PM_TOTAL_XI1.XI5.NET28 1 2
c0 1 0 0.0114016f
r1 1 2 8.52128
.ends

.subckt PM_TOTAL_XI1.XI1.NET16 10 11 16 17 24 31 35 40 44 49 53 58 62
c0 82 0 0.132021f
c1 79 0 0.109391f
c2 76 0 0.181881f
c3 72 0 0.186031f
c4 68 0 0.108034f
c5 65 0 0.0088531f
c6 64 0 0.0088531f
c7 63 0 0.0165044f
c8 60 0 0.195926f
c9 58 0 0.0822441f
c10 54 0 0.0642633f
c11 51 0 0.0843295f
c12 49 0 0.108233f
c13 45 0 0.0628087f
c14 42 0 0.0843295f
c15 40 0 0.108072f
c16 36 0 0.0620315f
c17 33 0 0.129389f
c18 31 0 0.146392f
c19 26 0 8.45704e-19
c20 19 0 0.0189338f
c21 10 0 0.00156444f
c22 4 0 0.573666f
c23 2 0 0.518847f
r24 78 79 8
r25 75 76 8
r26 71 75 0.1794
r27 71 72 8
r28 68 82 8
r29 67 69 3.75
r30 67 68 13.2552
r31 60 69 5.87991
r32 60 62 37
r33 56 67 8.24404
r34 56 58 31.75
r35 55 65 4.5
r36 54 69 5.47362
r37 54 55 25.5
r38 51 65 4.5
r39 51 53 37
r40 47 65 4.5
r41 47 49 50.5
r42 46 64 4.5
r43 45 65 4.5
r44 45 46 25.5
r45 42 64 4.5
r46 42 44 37
r47 38 64 4.5
r48 38 40 50.5
r49 37 63 0.990414
r50 36 64 4.5
r51 36 37 25.5
r52 33 63 3.81101
r53 33 35 37
r54 29 63 3.81101
r55 29 31 50.5
r56 26 79 16.3327
r57 24 26 5.85957
r58 19 76 8.16635
r59 17 19 2.75117
r60 16 19 2.75117
r61 13 72 8.16635
r62 11 13 2.304
r63 10 13 2.286
r64 5 82 0.12155
r65 4 75 0.40937
r66 4 5 0.0363174
r67 3 82 0.11635
r68 2 78 0.41977
r69 2 3 0.0363174
.ends

.subckt PM_TOTAL_XI1.XI1.NET27 1 2
c0 1 0 0.00492462f
r1 1 2 8.52128
.ends

.subckt PM_TOTAL_XI1.XI1.NET28 1 2
c0 1 0 0.0112071f
r1 1 2 8.52128
.ends

.subckt PM_TOTAL_XI1.XI7.NET16 10 11 16 17 24 31 35 40 44 49 53 58 62
c0 82 0 0.108978f
c1 79 0 0.10707f
c2 76 0 0.178589f
c3 72 0 0.18546f
c4 68 0 0.108007f
c5 65 0 0.0088531f
c6 64 0 0.0088531f
c7 63 0 0.0165044f
c8 60 0 0.196098f
c9 58 0 0.0789838f
c10 54 0 0.0636508f
c11 51 0 0.0843295f
c12 49 0 0.105072f
c13 45 0 0.0628087f
c14 42 0 0.0843295f
c15 40 0 0.104911f
c16 36 0 0.0604887f
c17 33 0 0.129389f
c18 31 0 0.14188f
c19 26 0 0.00287643f
c20 19 0 0.0247469f
c21 10 0 0.00156444f
c22 4 0 0.547646f
c23 2 0 0.337071f
r24 78 79 8
r25 75 76 8
r26 71 75 0.1794
r27 71 72 8
r28 68 82 8
r29 67 69 3.75
r30 67 68 13.2552
r31 60 69 5.87991
r32 60 62 37
r33 56 67 8.24404
r34 56 58 31.75
r35 55 65 4.5
r36 54 69 5.47362
r37 54 55 25.5
r38 51 65 4.5
r39 51 53 37
r40 47 65 4.5
r41 47 49 50.5
r42 46 64 4.5
r43 45 65 4.5
r44 45 46 25.5
r45 42 64 4.5
r46 42 44 37
r47 38 64 4.5
r48 38 40 50.5
r49 37 63 0.990414
r50 36 64 4.5
r51 36 37 25.5
r52 33 63 3.81101
r53 33 35 37
r54 29 63 3.81101
r55 29 31 50.5
r56 26 79 16.3327
r57 24 26 5.85957
r58 19 76 8.16635
r59 17 19 2.75117
r60 16 19 2.75117
r61 13 72 8.16635
r62 11 13 2.304
r63 10 13 2.286
r64 5 82 0.12155
r65 4 75 0.40937
r66 4 5 0.0363174
r67 3 82 0.11635
r68 2 78 0.41977
r69 2 3 0.0363174
.ends

.subckt PM_TOTAL_XI1.XI7.NET27 1 2
c0 1 0 0.0114273f
r1 1 2 8.52128
.ends

.subckt PM_TOTAL_XI1.XI7.NET28 1 2
c0 1 0 0.0114016f
r1 1 2 8.52128
.ends

.subckt PM_TOTAL_XI1.XI3.NET16 10 11 16 17 24 31 35 40 44 49 53 58 62
c0 82 0 0.108978f
c1 79 0 0.107382f
c2 76 0 0.17937f
c3 72 0 0.185267f
c4 68 0 0.108012f
c5 65 0 0.0088531f
c6 64 0 0.0088531f
c7 63 0 0.0165044f
c8 60 0 0.196098f
c9 58 0 0.0819739f
c10 54 0 0.0636508f
c11 51 0 0.0843295f
c12 49 0 0.108063f
c13 45 0 0.0628087f
c14 42 0 0.0843295f
c15 40 0 0.107901f
c16 36 0 0.0604887f
c17 33 0 0.129389f
c18 31 0 0.144871f
c19 26 0 0.00102761f
c20 19 0 0.0247469f
c21 10 0 0.00156444f
c22 4 0 0.547357f
c23 2 0 0.491955f
r24 78 79 8
r25 75 76 8
r26 71 75 0.1794
r27 71 72 8
r28 68 82 8
r29 67 69 3.75
r30 67 68 13.2552
r31 60 69 5.87991
r32 60 62 37
r33 56 67 8.24404
r34 56 58 31.75
r35 55 65 4.5
r36 54 69 5.47362
r37 54 55 25.5
r38 51 65 4.5
r39 51 53 37
r40 47 65 4.5
r41 47 49 50.5
r42 46 64 4.5
r43 45 65 4.5
r44 45 46 25.5
r45 42 64 4.5
r46 42 44 37
r47 38 64 4.5
r48 38 40 50.5
r49 37 63 0.990414
r50 36 64 4.5
r51 36 37 25.5
r52 33 63 3.81101
r53 33 35 37
r54 29 63 3.81101
r55 29 31 50.5
r56 26 79 16.3327
r57 24 26 5.85957
r58 19 76 8.16635
r59 17 19 2.75117
r60 16 19 2.75117
r61 13 72 8.16635
r62 11 13 2.304
r63 10 13 2.286
r64 5 82 0.12155
r65 4 75 0.40937
r66 4 5 0.0363174
r67 3 82 0.11635
r68 2 78 0.41977
r69 2 3 0.0363174
.ends

.subckt PM_TOTAL_XI1.XI3.NET27 1 2
c0 1 0 0.00865518f
r1 1 2 8.52128
.ends

.subckt PM_TOTAL_XI1.XI3.NET28 1 2
c0 1 0 0.00997466f
r1 1 2 8.52128
.ends

.subckt PM_TOTAL_XI1.XI4.NET16 10 11 16 17 24 31 35 40 44 49 53 58 62
c0 82 0 0.183153f
c1 79 0 0.108268f
c2 76 0 0.182842f
c3 72 0 0.187427f
c4 68 0 0.108243f
c5 65 0 0.0088531f
c6 64 0 0.0088531f
c7 63 0 0.0165044f
c8 60 0 0.200698f
c9 58 0 0.0835756f
c10 54 0 0.0652725f
c11 51 0 0.0898579f
c12 49 0 0.110582f
c13 45 0 0.066678f
c14 42 0 0.0898579f
c15 40 0 0.110421f
c16 36 0 0.0636596f
c17 33 0 0.134426f
c18 31 0 0.147414f
c19 26 0 0.00102761f
c20 19 0 0.0155995f
c21 10 0 0.0032925f
c22 4 0 0.622997f
c23 2 0 0.551594f
r24 78 79 8
r25 75 76 8
r26 71 75 0.1794
r27 71 72 8
r28 68 82 8
r29 67 69 3.75
r30 67 68 13.2552
r31 60 69 5.87991
r32 60 62 37
r33 56 67 8.24404
r34 56 58 31.75
r35 55 65 4.5
r36 54 69 5.47362
r37 54 55 25.5
r38 51 65 4.5
r39 51 53 37
r40 47 65 4.5
r41 47 49 50.5
r42 46 64 4.5
r43 45 65 4.5
r44 45 46 25.5
r45 42 64 4.5
r46 42 44 37
r47 38 64 4.5
r48 38 40 50.5
r49 37 63 0.990414
r50 36 64 4.5
r51 36 37 25.5
r52 33 63 3.81101
r53 33 35 37
r54 29 63 3.81101
r55 29 31 50.5
r56 26 79 16.3327
r57 24 26 5.85957
r58 19 76 8.16635
r59 17 19 2.75117
r60 16 19 2.75117
r61 13 72 8.16635
r62 11 13 2.304
r63 10 13 2.286
r64 5 82 0.12155
r65 4 75 0.40937
r66 4 5 0.0363174
r67 3 82 0.11635
r68 2 78 0.41977
r69 2 3 0.0363174
.ends

.subckt PM_TOTAL_XI1.XI4.NET27 1 2
c0 1 0 0.00865518f
r1 1 2 8.52128
.ends

.subckt PM_TOTAL_XI1.XI4.NET28 1 2
c0 1 0 0.00997466f
r1 1 2 8.52128
.ends

.subckt PM_TOTAL_XI1.XI0.NET16 10 11 16 17 24 31 35 40 44 49 53 58 62
c0 82 0 0.158784f
c1 79 0 0.10756f
c2 76 0 0.179862f
c3 72 0 0.185469f
c4 68 0 0.0798423f
c5 65 0 0.0088531f
c6 64 0 0.0088531f
c7 63 0 0.0165044f
c8 60 0 0.19444f
c9 58 0 0.0821342f
c10 54 0 0.0642788f
c11 51 0 0.0858301f
c12 49 0 0.109717f
c13 45 0 0.0628087f
c14 42 0 0.0858301f
c15 40 0 0.109555f
c16 36 0 0.0616198f
c17 33 0 0.130635f
c18 31 0 0.146531f
c19 26 0 7.0236e-19
c20 19 0 0.0193383f
c21 10 0 0.00153515f
c22 4 0 0.619443f
c23 2 0 0.529916f
r24 78 79 8
r25 75 76 8
r26 71 75 0.1794
r27 71 72 8
r28 68 82 8
r29 67 69 3.75
r30 67 68 13.2552
r31 60 69 5.87991
r32 60 62 37
r33 56 67 8.24404
r34 56 58 31.75
r35 55 65 4.5
r36 54 69 5.47362
r37 54 55 25.5
r38 51 65 4.5
r39 51 53 37
r40 47 65 4.5
r41 47 49 50.5
r42 46 64 4.5
r43 45 65 4.5
r44 45 46 25.5
r45 42 64 4.5
r46 42 44 37
r47 38 64 4.5
r48 38 40 50.5
r49 37 63 0.990414
r50 36 64 4.5
r51 36 37 25.5
r52 33 63 3.81101
r53 33 35 37
r54 29 63 3.81101
r55 29 31 50.5
r56 26 79 16.3327
r57 24 26 5.85957
r58 19 76 8.16635
r59 17 19 2.75117
r60 16 19 2.75117
r61 13 72 8.16635
r62 11 13 2.304
r63 10 13 2.286
r64 5 82 0.12155
r65 4 75 0.40937
r66 4 5 0.0363174
r67 3 82 0.11635
r68 2 78 0.41977
r69 2 3 0.0363174
.ends

.subckt PM_TOTAL_XI1.XI0.NET27 1 2
c0 1 0 0.00438072f
r1 1 2 8.52128
.ends

.subckt PM_TOTAL_XI1.XI0.NET28 1 2
c0 1 0 0.00437088f
r1 1 2 8.52128
.ends

.subckt PM_TOTAL_XI1.XI6.NET16 10 11 16 17 24 31 35 40 44 49 53 58 62
c0 82 0 0.108978f
c1 79 0 0.107476f
c2 76 0 0.180248f
c3 72 0 0.187143f
c4 68 0 0.108012f
c5 65 0 0.0088531f
c6 64 0 0.0088531f
c7 63 0 0.0165044f
c8 60 0 0.196098f
c9 58 0 0.0819739f
c10 54 0 0.0636508f
c11 51 0 0.0843295f
c12 49 0 0.108063f
c13 45 0 0.0628087f
c14 42 0 0.0843295f
c15 40 0 0.107901f
c16 36 0 0.0604887f
c17 33 0 0.129389f
c18 31 0 0.144871f
c19 26 0 8.45704e-19
c20 19 0 0.0182832f
c21 10 0 0.00370797f
c22 4 0 0.56359f
c23 2 0 0.48718f
r24 78 79 8
r25 75 76 8
r26 71 75 0.1794
r27 71 72 8
r28 68 82 8
r29 67 69 3.75
r30 67 68 13.2552
r31 60 69 5.87991
r32 60 62 37
r33 56 67 8.24404
r34 56 58 31.75
r35 55 65 4.5
r36 54 69 5.47362
r37 54 55 25.5
r38 51 65 4.5
r39 51 53 37
r40 47 65 4.5
r41 47 49 50.5
r42 46 64 4.5
r43 45 65 4.5
r44 45 46 25.5
r45 42 64 4.5
r46 42 44 37
r47 38 64 4.5
r48 38 40 50.5
r49 37 63 0.990414
r50 36 64 4.5
r51 36 37 25.5
r52 33 63 3.81101
r53 33 35 37
r54 29 63 3.81101
r55 29 31 50.5
r56 26 79 16.3327
r57 24 26 5.85957
r58 19 76 8.16635
r59 17 19 2.75117
r60 16 19 2.75117
r61 13 72 8.16635
r62 11 13 2.304
r63 10 13 2.286
r64 5 82 0.12155
r65 4 75 0.40937
r66 4 5 0.0363174
r67 3 82 0.11635
r68 2 78 0.41977
r69 2 3 0.0363174
.ends

.subckt PM_TOTAL_XI1.XI6.NET27 1 2
c0 1 0 0.00492462f
r1 1 2 8.52128
.ends

.subckt PM_TOTAL_XI1.XI6.NET28 1 2
c0 1 0 0.0112071f
r1 1 2 8.52128
.ends

.subckt PM_TOTAL_XI1.XI2.NET16 10 11 16 17 24 31 35 40 44 49 53 58 62
c0 82 0 0.108978f
c1 79 0 0.108454f
c2 76 0 0.182853f
c3 72 0 0.189749f
c4 68 0 0.108012f
c5 65 0 0.0088531f
c6 64 0 0.0088531f
c7 63 0 0.0165044f
c8 60 0 0.196098f
c9 58 0 0.0819739f
c10 54 0 0.0636508f
c11 51 0 0.0843295f
c12 49 0 0.108063f
c13 45 0 0.0628087f
c14 42 0 0.0843295f
c15 40 0 0.107901f
c16 36 0 0.0604887f
c17 33 0 0.129389f
c18 31 0 0.144871f
c19 26 0 0.0020055f
c20 19 0 0.00997275f
c21 10 0 0.00216327f
c22 4 0 0.572732f
c23 2 0 0.490917f
r24 78 79 8
r25 75 76 8
r26 71 75 0.1794
r27 71 72 8
r28 68 82 8
r29 67 69 3.75
r30 67 68 13.2552
r31 60 69 5.87991
r32 60 62 37
r33 56 67 8.24404
r34 56 58 31.75
r35 55 65 4.5
r36 54 69 5.47362
r37 54 55 25.5
r38 51 65 4.5
r39 51 53 37
r40 47 65 4.5
r41 47 49 50.5
r42 46 64 4.5
r43 45 65 4.5
r44 45 46 25.5
r45 42 64 4.5
r46 42 44 37
r47 38 64 4.5
r48 38 40 50.5
r49 37 63 0.990414
r50 36 64 4.5
r51 36 37 25.5
r52 33 63 3.81101
r53 33 35 37
r54 29 63 3.81101
r55 29 31 50.5
r56 26 79 16.3327
r57 24 26 5.85957
r58 19 76 8.16635
r59 17 19 2.75117
r60 16 19 2.75117
r61 13 72 8.16635
r62 11 13 2.304
r63 10 13 2.286
r64 5 82 0.12155
r65 4 75 0.40937
r66 4 5 0.0363174
r67 3 82 0.11635
r68 2 78 0.41977
r69 2 3 0.0363174
.ends

.subckt PM_TOTAL_XI1.XI2.NET27 1 2
c0 1 0 0.00438072f
r1 1 2 8.52128
.ends

.subckt PM_TOTAL_XI1.XI2.NET28 1 2
c0 1 0 0.00437088f
r1 1 2 8.52128
.ends

.subckt PM_TOTAL_XI0.XI7.NET15 9 14 21 24
c0 36 0 0.316589f
c1 33 0 0.207502f
c2 28 0 0.0447129f
c3 27 0 0.109622f
c4 24 0 0.259984f
c5 19 0 0.101385f
c6 17 0 0.0875243f
c7 12 0 0.0918679f
c8 11 0 0.00384239f
c9 8 0 0.019942f
c10 3 0 0.02206f
r11 28 36 0.0474294
r12 27 28 13.2552
r13 22 27 8.07022
r14 22 24 71.25
r15 19 27 8.07022
r16 19 21 18.75
r17 17 31 0.0472294
r18 16 17 16.3327
r19 14 16 4.90213
r20 12 33 0.0472294
r21 11 12 16.3327
r22 9 11 4.90213
r23 7 8 0.00770322
r24 7 36 0.683261
r25 4 8 0.0296412
r26 4 33 0.42913
r27 3 8 0.0296412
r28 3 31 0.0730435
.ends

.subckt PM_TOTAL_X8.X12.noxref_8 11 16 17 21
c0 31 0 0.0233036f
c1 24 0 0.123334f
c2 23 0 0.00269421f
c3 20 0 0.117993f
c4 16 0 0.0136703f
c5 14 0 0.0926771f
c6 11 0 0.00480194f
c7 9 0 0.0235486f
c8 6 0 0.227631f
c9 5 0 0.0487239f
c10 4 0 0.149798f
r11 23 24 16.3327
r12 21 23 4.90213
r13 19 20 16.3327
r14 17 19 4.90213
r15 16 19 4.86383
r16 14 31 0.0472294
r17 13 14 16.3327
r18 11 13 4.86383
r19 10 24 0.087
r20 8 20 0.087
r21 8 9 0.000663774
r22 7 9 0.0413841
r23 6 10 0.0413287
r24 6 7 0.313478
r25 4 9 0.0413841
r26 4 5 0.313478
r27 2 5 0.039111
r28 2 31 0.0730435
.ends

.subckt PM_TOTAL_X8.X12.noxref_9 1 2
r0 1 2 9.76596
.ends

.subckt PM_TOTAL_X8.X12.noxref_10 1 2
r0 1 2 9.76596
.ends

.subckt PM_TOTAL_XI0.XI6.NET15 9 14 21 24
c0 36 0 0.320954f
c1 33 0 0.203385f
c2 28 0 0.0430335f
c3 27 0 0.107631f
c4 24 0 0.263892f
c5 19 0 0.106503f
c6 17 0 0.0968055f
c7 12 0 0.0905089f
c8 8 0 0.0216816f
c9 3 0 0.0261998f
r10 28 36 0.0474294
r11 27 28 13.2552
r12 22 27 8.07022
r13 22 24 71.25
r14 19 27 8.07022
r15 19 21 18.75
r16 17 31 0.0472294
r17 16 17 16.3327
r18 14 16 4.90213
r19 12 33 0.0472294
r20 11 12 16.3327
r21 9 11 4.90213
r22 7 8 0.00770322
r23 7 36 0.683261
r24 4 8 0.0296412
r25 4 33 0.42913
r26 3 8 0.0296412
r27 3 31 0.0730435
.ends

.subckt PM_TOTAL_X8.X13.noxref_8 11 16 17 21
c0 31 0 0.0239148f
c1 24 0 0.122566f
c2 23 0 0.00267099f
c3 20 0 0.117997f
c4 16 0 0.0111267f
c5 14 0 0.0940014f
c6 9 0 0.0235486f
c7 6 0 0.230788f
c8 5 0 0.0491283f
c9 4 0 0.146894f
r10 23 24 16.3327
r11 21 23 4.90213
r12 19 20 16.3327
r13 17 19 4.90213
r14 16 19 4.86383
r15 14 31 0.0472294
r16 13 14 16.3327
r17 11 13 4.86383
r18 10 24 0.087
r19 8 20 0.087
r20 8 9 0.000663774
r21 7 9 0.0413841
r22 6 10 0.0413287
r23 6 7 0.313478
r24 4 9 0.0413841
r25 4 5 0.313478
r26 2 5 0.039111
r27 2 31 0.0730435
.ends

.subckt PM_TOTAL_X8.X13.noxref_9 1 2
c0 1 0 0.0149042f
r1 1 2 9.76596
.ends

.subckt PM_TOTAL_X8.X13.noxref_10 1 2
c0 1 0 0.0129745f
r1 1 2 9.76596
.ends

.subckt PM_TOTAL_XI0.XI10.NET15 9 14 21 24
c0 36 0 0.31431f
c1 33 0 0.197481f
c2 28 0 0.0484572f
c3 27 0 0.106225f
c4 24 0 0.264021f
c5 19 0 0.100298f
c6 17 0 0.0894495f
c7 12 0 0.0882196f
c8 11 0 5.93831e-19
c9 8 0 0.0172344f
c10 3 0 0.0216525f
r11 28 36 0.0474294
r12 27 28 13.2552
r13 22 27 8.07022
r14 22 24 71.25
r15 19 27 8.07022
r16 19 21 18.75
r17 17 31 0.0472294
r18 16 17 16.3327
r19 14 16 4.90213
r20 12 33 0.0472294
r21 11 12 16.3327
r22 9 11 4.90213
r23 7 8 0.00770322
r24 7 36 0.683261
r25 4 8 0.0296412
r26 4 33 0.42913
r27 3 8 0.0296412
r28 3 31 0.0730435
.ends

.subckt PM_TOTAL_X8.X14.noxref_8 11 16 17 21
c0 31 0 0.02317f
c1 24 0 0.122945f
c2 23 0 0.00250133f
c3 20 0 0.117997f
c4 16 0 0.0110085f
c5 14 0 0.0911874f
c6 11 0 5.93831e-19
c7 9 0 0.0235502f
c8 6 0 0.238752f
c9 5 0 0.0491283f
c10 4 0 0.150036f
r11 23 24 16.3327
r12 21 23 4.90213
r13 19 20 16.3327
r14 17 19 4.90213
r15 16 19 4.86383
r16 14 31 0.0472294
r17 13 14 16.3327
r18 11 13 4.86383
r19 10 24 0.087
r20 8 20 0.087
r21 8 9 0.000663774
r22 7 9 0.0413841
r23 6 10 0.0413287
r24 6 7 0.313478
r25 4 9 0.0413841
r26 4 5 0.313478
r27 2 5 0.039111
r28 2 31 0.0730435
.ends

.subckt PM_TOTAL_X8.X14.noxref_9 1 2
c0 1 0 0.0122287f
r1 1 2 9.76596
.ends

.subckt PM_TOTAL_X8.X14.noxref_10 1 2
c0 1 0 0.0122287f
r1 1 2 9.76596
.ends

.subckt PM_TOTAL_XI0.XI9.NET15 9 14 21 24
c0 36 0 0.31187f
c1 33 0 0.197252f
c2 28 0 0.0447956f
c3 27 0 0.109515f
c4 24 0 0.262532f
c5 19 0 0.105031f
c6 17 0 0.0930402f
c7 16 0 0.00333154f
c8 12 0 0.0907792f
c9 8 0 0.0194948f
c10 3 0 0.0221788f
r11 28 36 0.0474294
r12 27 28 13.2552
r13 22 27 8.07022
r14 22 24 71.25
r15 19 27 8.07022
r16 19 21 18.75
r17 17 31 0.0472294
r18 16 17 16.3327
r19 14 16 4.90213
r20 12 33 0.0472294
r21 11 12 16.3327
r22 9 11 4.90213
r23 7 8 0.00770322
r24 7 36 0.683261
r25 4 8 0.0296412
r26 4 33 0.42913
r27 3 8 0.0296412
r28 3 31 0.0730435
.ends

.subckt PM_TOTAL_X8.X15.noxref_8 11 16 17 21
c0 31 0 0.0223909f
c1 24 0 0.121707f
c2 23 0 0.00272646f
c3 20 0 0.117996f
c4 16 0 0.0159049f
c5 14 0 0.0932861f
c6 11 0 0.00228968f
c7 9 0 0.0235487f
c8 6 0 0.226869f
c9 5 0 0.0478457f
c10 4 0 0.146335f
r11 23 24 16.3327
r12 21 23 4.90213
r13 19 20 16.3327
r14 17 19 4.90213
r15 16 19 4.86383
r16 14 31 0.0472294
r17 13 14 16.3327
r18 11 13 4.86383
r19 10 24 0.087
r20 8 20 0.087
r21 8 9 0.000663774
r22 7 9 0.0413841
r23 6 10 0.0413287
r24 6 7 0.313478
r25 4 9 0.0413841
r26 4 5 0.313478
r27 2 5 0.039111
r28 2 31 0.0730435
.ends

.subckt PM_TOTAL_X8.X15.noxref_9 1 2
r0 1 2 9.76596
.ends

.subckt PM_TOTAL_X8.X15.noxref_10 1 2
r0 1 2 9.76596
.ends

.subckt PM_TOTAL_XI0.XI8.NET15 9 14 21 24
c0 36 0 0.313904f
c1 33 0 0.19811f
c2 28 0 0.0409205f
c3 27 0 0.106378f
c4 24 0 0.259876f
c5 19 0 0.103308f
c6 17 0 0.0928662f
c7 12 0 0.091355f
c8 8 0 0.0179914f
c9 3 0 0.0213528f
r10 28 36 0.0474294
r11 27 28 13.2552
r12 22 27 8.07022
r13 22 24 71.25
r14 19 27 8.07022
r15 19 21 18.75
r16 17 31 0.0472294
r17 16 17 16.3327
r18 14 16 4.90213
r19 12 33 0.0472294
r20 11 12 16.3327
r21 9 11 4.90213
r22 7 8 0.00770322
r23 7 36 0.683261
r24 4 8 0.0296412
r25 4 33 0.42913
r26 3 8 0.0296412
r27 3 31 0.0730435
.ends

.subckt PM_TOTAL_X8.X16.noxref_8 11 16 17 21
c0 31 0 0.0215531f
c1 24 0 0.123624f
c2 23 0 0.00267099f
c3 20 0 0.119081f
c4 16 0 0.0161776f
c5 14 0 0.0912592f
c6 11 0 0.0089707f
c7 9 0 0.0235487f
c8 6 0 0.228277f
c9 5 0 0.0479297f
c10 4 0 0.147428f
r11 23 24 16.3327
r12 21 23 4.90213
r13 19 20 16.3327
r14 17 19 4.90213
r15 16 19 4.86383
r16 14 31 0.0472294
r17 13 14 16.3327
r18 11 13 4.86383
r19 10 24 0.087
r20 8 20 0.087
r21 8 9 0.000663774
r22 7 9 0.0413841
r23 6 10 0.0413287
r24 6 7 0.313478
r25 4 9 0.0413841
r26 4 5 0.313478
r27 2 5 0.039111
r28 2 31 0.0730435
.ends

.subckt PM_TOTAL_X8.X16.noxref_9 1 2
r0 1 2 9.76596
.ends

.subckt PM_TOTAL_X8.X16.noxref_10 1 2
r0 1 2 9.76596
.ends

.subckt PM_TOTAL_XI0.XI11.NET12 1 2
c0 1 0 0.00324714f
r1 1 2 9.76596
.ends

.subckt PM_TOTAL_XI0.XI12.NET12 1 2
c0 1 0 0.0155513f
r1 1 2 9.76596
.ends

.subckt PM_TOTAL_XI0.XI2.NET16 7 12 21
c0 26 0 0.058025f
c1 22 0 0.109862f
c2 19 0 0.0788319f
c3 17 0 0.0906222f
c4 15 0 0.110735f
c5 14 0 0.00335691f
c6 10 0 0.151932f
c7 9 0 0.00296364f
c8 5 0 0.0523271f
c9 4 0 0.0771858f
c10 3 0 0.0570947f
r11 28 33 0.00411102
r12 26 33 0.0462
r13 25 26 13.2552
r14 22 25 2.7766
r15 19 21 16.75
r16 18 22 4.73303
r17 17 19 5.02856
r18 17 18 28
r19 15 28 0.079
r20 14 15 16.3327
r21 12 14 4.90213
r22 9 10 8.16635
r23 7 9 2.42526
r24 6 10 0.183
r25 4 6 0.0413287
r26 4 5 0.103478
r27 3 5 0.0413287
r28 2 33 0.00411102
r29 2 3 0.076
.ends

.subckt PM_TOTAL_XI0.XI2.NET20 11 16 23 29
c0 36 0 0.135962f
c1 33 0 0.152166f
c2 29 0 0.163022f
c3 25 0 0.0897092f
c4 23 0 0.12041f
c5 19 0 0.0740455f
c6 16 0 0.00433207f
c7 14 0 0.2102f
c8 13 0 0.00262815f
c9 10 0 0.0519326f